Distrib/EPRITestCircuits/ckt7/Services_ckt7.dss
New Linecode.defaultSecondary nphases=1 rmatrix=0.25  xmatrix=0.076 cmatrix=3 units=kft
New Linecode.defaultSecondary3P nphases=3 rmatrix=[ 0.109716212 0.018049545 0.018049545 |0.018049545 0.109716212 0.018049545 | 0.018049545 0.018049545 0.109716212]
!ohms per 1000 ft
~ xmatrix=[ 0.27765665 0.246417363 0.23845259 | 0.246417363 0.27765665 0.246417363 | 0.23845259 0.246417363 0.27765665]
~ cmatrix=[15 | -7 15 | -7 -7 15]
~ Normamps=299  {299 1.25 *}
~ units=kft
 
New Line.S_0862099-DA1 bus1=X_0862099.1.2.3 bus2=S1X_0862099.1.2.3 linecode=defaultSecondary3P  length=100  units=ft
New Line.S_0862099-DA2 bus1=X_0862099.1.2.3 bus2=S2X_0862099.1.2.3 linecode=defaultSecondary3P  length=100  units=ft
New Line.S_0862099-DA3 bus1=X_0862099.1.2.3 bus2=S3X_0862099.1.2.3 linecode=defaultSecondary3P  length=100  units=ft
New Line.S_1000663-DA1 bus1=X_1000663.1 bus2=S1X_1000663.1 linecode=defaultSecondary  length=100  units=ft
New Line.S_1000663-DB1 bus1=X_1000663.2 bus2=S1X_1000663.2 linecode=defaultSecondary  length=100  units=ft
New Line.S_1000663-DC1 bus1=X_1000663.3 bus2=S1X_1000663.3 linecode=defaultSecondary  length=100  units=ft
New Line.S_1000252-DB1 bus1=X_1000252.2 bus2=S1X_1000252.2 linecode=defaultSecondary  length=100  units=ft
New Line.S_1001746-DA1 bus1=X_1001746.1.2.3 bus2=S1X_1001746.1.2.3 linecode=defaultSecondary3P  length=100  units=ft
New Line.S_1001746-DA2 bus1=X_1001746.1.2.3 bus2=S2X_1001746.1.2.3 linecode=defaultSecondary3P  length=100  units=ft
New Line.S_1001746-DA3 bus1=X_1001746.1.2.3 bus2=S3X_1001746.1.2.3 linecode=defaultSecondary3P  length=100  units=ft
New Line.S_1000502-DB1 bus1=X_1000502.2 bus2=S1X_1000502.2 linecode=defaultSecondary  length=100  units=ft
New Line.S_1000824-DA1 bus1=X_1000824.1 bus2=S1X_1000824.1 linecode=defaultSecondary  length=100  units=ft
New Line.S_1000824-DA2 bus1=X_1000824.1 bus2=S2X_1000824.1 linecode=defaultSecondary  length=100  units=ft
New Line.S_1000824-DA3 bus1=X_1000824.1 bus2=S3X_1000824.1 linecode=defaultSecondary  length=100  units=ft
New Line.S_1000824-DB1 bus1=X_1000824.2 bus2=S1X_1000824.2 linecode=defaultSecondary  length=100  units=ft
New Line.S_1000824-DB2 bus1=X_1000824.2 bus2=S2X_1000824.2 linecode=defaultSecondary  length=100  units=ft
New Line.S_1000824-DB3 bus1=X_1000824.2 bus2=S3X_1000824.2 linecode=defaultSecondary  length=100  units=ft
New Line.S_1000824-DC1 bus1=X_1000824.3 bus2=S1X_1000824.3 linecode=defaultSecondary  length=100  units=ft
New Line.S_1000824-DC2 bus1=X_1000824.3 bus2=S2X_1000824.3 linecode=defaultSecondary  length=100  units=ft
New Line.S_1000824-DC3 bus1=X_1000824.3 bus2=S3X_1000824.3 linecode=defaultSecondary  length=100  units=ft
New Line.S_1001745-DA1 bus1=X_1001745.1.2.3 bus2=S1X_1001745.1.2.3 linecode=defaultSecondary3P  length=100  units=ft
New Line.S_1001745-DA2 bus1=X_1001745.1.2.3 bus2=S2X_1001745.1.2.3 linecode=defaultSecondary3P  length=100  units=ft
New Line.S_1001745-DA3 bus1=X_1001745.1.2.3 bus2=S3X_1001745.1.2.3 linecode=defaultSecondary3P  length=100  units=ft
New Line.S_1001329-DA1 bus1=X_1001329.1.2.3 bus2=S1X_1001329.1.2.3 linecode=defaultSecondary3P  length=100  units=ft
New Line.S_1001329-DA2 bus1=X_1001329.1.2.3 bus2=S2X_1001329.1.2.3 linecode=defaultSecondary3P  length=100  units=ft
New Line.S_1001329-DA3 bus1=X_1001329.1.2.3 bus2=S3X_1001329.1.2.3 linecode=defaultSecondary3P  length=100  units=ft
New Line.S_1001359-DA1 bus1=X_1001359.1.2.3 bus2=S1X_1001359.1.2.3 linecode=defaultSecondary3P  length=100  units=ft
New Line.S_1001359-DA2 bus1=X_1001359.1.2.3 bus2=S2X_1001359.1.2.3 linecode=defaultSecondary3P  length=100  units=ft
New Line.S_1001359-DA3 bus1=X_1001359.1.2.3 bus2=S3X_1001359.1.2.3 linecode=defaultSecondary3P  length=100  units=ft
New Line.S_1001330-DA1 bus1=X_1001330.1.2.3 bus2=S1X_1001330.1.2.3 linecode=defaultSecondary3P  length=100  units=ft
New Line.S_1001330-DA2 bus1=X_1001330.1.2.3 bus2=S2X_1001330.1.2.3 linecode=defaultSecondary3P  length=100  units=ft
New Line.S_1001330-DA3 bus1=X_1001330.1.2.3 bus2=S3X_1001330.1.2.3 linecode=defaultSecondary3P  length=100  units=ft
New Line.S_1001330-DA4 bus1=X_1001330.1.2.3 bus2=S4X_1001330.1.2.3 linecode=defaultSecondary3P  length=100  units=ft
New Line.S_1001330-DA5 bus1=X_1001330.1.2.3 bus2=S5X_1001330.1.2.3 linecode=defaultSecondary3P  length=100  units=ft
New Line.S_1001330-DA6 bus1=X_1001330.1.2.3 bus2=S6X_1001330.1.2.3 linecode=defaultSecondary3P  length=100  units=ft
New Line.S_1000672-DA1 bus1=X_1000672.1 bus2=S1X_1000672.1 linecode=defaultSecondary  length=100  units=ft
New Line.S_1001708-DA1 bus1=X_1001708.1.2.3 bus2=S1X_1001708.1.2.3 linecode=defaultSecondary3P  length=100  units=ft
New Line.S_1001708-DA2 bus1=X_1001708.1.2.3 bus2=S2X_1001708.1.2.3 linecode=defaultSecondary3P  length=100  units=ft
New Line.S_1001708-DA3 bus1=X_1001708.1.2.3 bus2=S3X_1001708.1.2.3 linecode=defaultSecondary3P  length=100  units=ft
New Line.S_1001345-DA1 bus1=X_1001345.1.2.3 bus2=S1X_1001345.1.2.3 linecode=defaultSecondary3P  length=100  units=ft
New Line.S_1001345-DA2 bus1=X_1001345.1.2.3 bus2=S2X_1001345.1.2.3 linecode=defaultSecondary3P  length=100  units=ft
New Line.S_1001345-DA3 bus1=X_1001345.1.2.3 bus2=S3X_1001345.1.2.3 linecode=defaultSecondary3P  length=100  units=ft
New Line.S_1000933-DA1 bus1=X_1000933.1.2.3 bus2=S1X_1000933.1.2.3 linecode=defaultSecondary3P  length=100  units=ft
New Line.S_1000933-DA2 bus1=X_1000933.1.2.3 bus2=S2X_1000933.1.2.3 linecode=defaultSecondary3P  length=100  units=ft
New Line.S_1000933-DA3 bus1=X_1000933.1.2.3 bus2=S3X_1000933.1.2.3 linecode=defaultSecondary3P  length=100  units=ft
New Line.S_1000933-DA4 bus1=X_1000933.1.2.3 bus2=S4X_1000933.1.2.3 linecode=defaultSecondary3P  length=100  units=ft
New Line.S_1000933-DA5 bus1=X_1000933.1.2.3 bus2=S5X_1000933.1.2.3 linecode=defaultSecondary3P  length=100  units=ft
New Line.S_1000933-DA6 bus1=X_1000933.1.2.3 bus2=S6X_1000933.1.2.3 linecode=defaultSecondary3P  length=100  units=ft
New Line.S_1000933-DA7 bus1=X_1000933.1.2.3 bus2=S7X_1000933.1.2.3 linecode=defaultSecondary3P  length=100  units=ft
New Line.S_1000933-DA8 bus1=X_1000933.1.2.3 bus2=S8X_1000933.1.2.3 linecode=defaultSecondary3P  length=100  units=ft
New Line.S_1000933-DA9 bus1=X_1000933.1.2.3 bus2=S9X_1000933.1.2.3 linecode=defaultSecondary3P  length=100  units=ft
New Line.S_1000933-DA10 bus1=X_1000933.1.2.3 bus2=S10X_1000933.1.2.3 linecode=defaultSecondary3P  length=100  units=ft
New Line.S_1000933-DA11 bus1=X_1000933.1.2.3 bus2=S11X_1000933.1.2.3 linecode=defaultSecondary3P  length=100  units=ft
New Line.S_1000933-DA12 bus1=X_1000933.1.2.3 bus2=S12X_1000933.1.2.3 linecode=defaultSecondary3P  length=100  units=ft
New Line.S_1000933-DA13 bus1=X_1000933.1.2.3 bus2=S13X_1000933.1.2.3 linecode=defaultSecondary3P  length=100  units=ft
New Line.S_1000933-DA14 bus1=X_1000933.1.2.3 bus2=S14X_1000933.1.2.3 linecode=defaultSecondary3P  length=100  units=ft
New Line.S_1000933-DA15 bus1=X_1000933.1.2.3 bus2=S15X_1000933.1.2.3 linecode=defaultSecondary3P  length=100  units=ft
New Line.S_1001823-DA1 bus1=X_1001823.1 bus2=S1X_1001823.1 linecode=defaultSecondary  length=100  units=ft
New Line.S_1001822-DA1 bus1=X_1001822.1 bus2=S1X_1001822.1 linecode=defaultSecondary  length=100  units=ft
New Line.S_1001822-DB1 bus1=X_1001822.2 bus2=S1X_1001822.2 linecode=defaultSecondary  length=100  units=ft
New Line.S_1001822-DC1 bus1=X_1001822.3 bus2=S1X_1001822.3 linecode=defaultSecondary  length=100  units=ft
New Line.S_1000042-DA1 bus1=X_1000042.1 bus2=S1X_1000042.1 linecode=defaultSecondary  length=100  units=ft
New Line.S_1000042-DA2 bus1=X_1000042.1 bus2=S2X_1000042.1 linecode=defaultSecondary  length=100  units=ft
New Line.S_1000042-DA3 bus1=X_1000042.1 bus2=S3X_1000042.1 linecode=defaultSecondary  length=100  units=ft
New Line.S_1000042-DA4 bus1=X_1000042.1 bus2=S4X_1000042.1 linecode=defaultSecondary  length=100  units=ft
New Line.S_1000042-DA5 bus1=X_1000042.1 bus2=S5X_1000042.1 linecode=defaultSecondary  length=100  units=ft
New Line.S_1000042-DA6 bus1=X_1000042.1 bus2=S6X_1000042.1 linecode=defaultSecondary  length=100  units=ft
New Line.S_1000042-DA7 bus1=X_1000042.1 bus2=S7X_1000042.1 linecode=defaultSecondary  length=100  units=ft
New Line.S_1000077-DA1 bus1=X_1000077.1 bus2=S1X_1000077.1 linecode=defaultSecondary  length=100  units=ft
New Line.S_1000077-DA2 bus1=X_1000077.1 bus2=S2X_1000077.1 linecode=defaultSecondary  length=100  units=ft
New Line.S_1000077-DA3 bus1=X_1000077.1 bus2=S3X_1000077.1 linecode=defaultSecondary  length=100  units=ft
New Line.S_1000077-DA4 bus1=X_1000077.1 bus2=S4X_1000077.1 linecode=defaultSecondary  length=100  units=ft
New Line.S_1000077-DA5 bus1=X_1000077.1 bus2=S5X_1000077.1 linecode=defaultSecondary  length=100  units=ft
New Line.S_1000077-DA6 bus1=X_1000077.1 bus2=S6X_1000077.1 linecode=defaultSecondary  length=100  units=ft
New Line.S_1000474-DA1 bus1=X_1000474.1 bus2=S1X_1000474.1 linecode=defaultSecondary  length=100  units=ft
New Line.S_1000474-DA2 bus1=X_1000474.1 bus2=S2X_1000474.1 linecode=defaultSecondary  length=100  units=ft
New Line.S_1000474-DA3 bus1=X_1000474.1 bus2=S3X_1000474.1 linecode=defaultSecondary  length=100  units=ft
New Line.S_1000474-DA4 bus1=X_1000474.1 bus2=S4X_1000474.1 linecode=defaultSecondary  length=100  units=ft
New Line.S_1000474-DA5 bus1=X_1000474.1 bus2=S5X_1000474.1 linecode=defaultSecondary  length=100  units=ft
New Line.S_1000043-DA1 bus1=X_1000043.1 bus2=S1X_1000043.1 linecode=defaultSecondary  length=100  units=ft
New Line.S_1000043-DA2 bus1=X_1000043.1 bus2=S2X_1000043.1 linecode=defaultSecondary  length=100  units=ft
New Line.S_1000043-DA3 bus1=X_1000043.1 bus2=S3X_1000043.1 linecode=defaultSecondary  length=100  units=ft
New Line.S_1000043-DA4 bus1=X_1000043.1 bus2=S4X_1000043.1 linecode=defaultSecondary  length=100  units=ft
New Line.S_1000043-DA5 bus1=X_1000043.1 bus2=S5X_1000043.1 linecode=defaultSecondary  length=100  units=ft
New Line.S_1000043-DA6 bus1=X_1000043.1 bus2=S6X_1000043.1 linecode=defaultSecondary  length=100  units=ft
New Line.S_1001567-DA1 bus1=X_1001567.1.2.3 bus2=S1X_1001567.1.2.3 linecode=defaultSecondary3P  length=100  units=ft
New Line.S_1001567-DA2 bus1=X_1001567.1.2.3 bus2=S2X_1001567.1.2.3 linecode=defaultSecondary3P  length=100  units=ft
New Line.S_1001567-DA3 bus1=X_1001567.1.2.3 bus2=S3X_1001567.1.2.3 linecode=defaultSecondary3P  length=100  units=ft
New Line.S_1000233-DB1 bus1=X_1000233.2 bus2=S1X_1000233.2 linecode=defaultSecondary  length=100  units=ft
New Line.S_1000569-DA1 bus1=X_1000569.1.2.3 bus2=S1X_1000569.1.2.3 linecode=defaultSecondary3P  length=100  units=ft
New Line.S_1000569-DA2 bus1=X_1000569.1.2.3 bus2=S2X_1000569.1.2.3 linecode=defaultSecondary3P  length=100  units=ft
New Line.S_1000569-DA3 bus1=X_1000569.1.2.3 bus2=S3X_1000569.1.2.3 linecode=defaultSecondary3P  length=100  units=ft
New Line.S_1000746-DA1 bus1=X_1000746.1.2.3 bus2=S1X_1000746.1.2.3 linecode=defaultSecondary3P  length=100  units=ft
New Line.S_1000746-DA2 bus1=X_1000746.1.2.3 bus2=S2X_1000746.1.2.3 linecode=defaultSecondary3P  length=100  units=ft
New Line.S_1000746-DA3 bus1=X_1000746.1.2.3 bus2=S3X_1000746.1.2.3 linecode=defaultSecondary3P  length=100  units=ft
New Line.S_1000608-DA1 bus1=X_1000608.1 bus2=S1X_1000608.1 linecode=defaultSecondary  length=100  units=ft
New Line.S_1000608-DA2 bus1=X_1000608.1 bus2=S2X_1000608.1 linecode=defaultSecondary  length=100  units=ft
New Line.S_1000608-DA3 bus1=X_1000608.1 bus2=S3X_1000608.1 linecode=defaultSecondary  length=100  units=ft
New Line.S_1000608-DA4 bus1=X_1000608.1 bus2=S4X_1000608.1 linecode=defaultSecondary  length=100  units=ft
New Line.S_1000608-DA5 bus1=X_1000608.1 bus2=S5X_1000608.1 linecode=defaultSecondary  length=100  units=ft
New Line.S_1000608-DA6 bus1=X_1000608.1 bus2=S6X_1000608.1 linecode=defaultSecondary  length=100  units=ft
New Line.S_1000608-DA7 bus1=X_1000608.1 bus2=S7X_1000608.1 linecode=defaultSecondary  length=100  units=ft
New Line.S_1000608-DA8 bus1=X_1000608.1 bus2=S8X_1000608.1 linecode=defaultSecondary  length=100  units=ft
New Line.S_1000609-DA1 bus1=X_1000609.1 bus2=S1X_1000609.1 linecode=defaultSecondary  length=100  units=ft
New Line.S_1000609-DA2 bus1=X_1000609.1 bus2=S2X_1000609.1 linecode=defaultSecondary  length=100  units=ft
New Line.S_1000609-DA3 bus1=X_1000609.1 bus2=S3X_1000609.1 linecode=defaultSecondary  length=100  units=ft
New Line.S_1000609-DA4 bus1=X_1000609.1 bus2=S4X_1000609.1 linecode=defaultSecondary  length=100  units=ft
New Line.S_1000609-DA5 bus1=X_1000609.1 bus2=S5X_1000609.1 linecode=defaultSecondary  length=100  units=ft
New Line.S_1000609-DA6 bus1=X_1000609.1 bus2=S6X_1000609.1 linecode=defaultSecondary  length=100  units=ft
New Line.S_1000609-DA7 bus1=X_1000609.1 bus2=S7X_1000609.1 linecode=defaultSecondary  length=100  units=ft
New Line.S_1000609-DA8 bus1=X_1000609.1 bus2=S8X_1000609.1 linecode=defaultSecondary  length=100  units=ft
New Line.S_1000609-DA9 bus1=X_1000609.1 bus2=S9X_1000609.1 linecode=defaultSecondary  length=100  units=ft
New Line.S_1000609-DA10 bus1=X_1000609.1 bus2=S10X_1000609.1 linecode=defaultSecondary  length=100  units=ft
New Line.S_1000609-DA11 bus1=X_1000609.1 bus2=S11X_1000609.1 linecode=defaultSecondary  length=100  units=ft
New Line.S_1000610-DA1 bus1=X_1000610.1 bus2=S1X_1000610.1 linecode=defaultSecondary  length=100  units=ft
New Line.S_1000610-DA2 bus1=X_1000610.1 bus2=S2X_1000610.1 linecode=defaultSecondary  length=100  units=ft
New Line.S_1000610-DA3 bus1=X_1000610.1 bus2=S3X_1000610.1 linecode=defaultSecondary  length=100  units=ft
New Line.S_1000610-DA4 bus1=X_1000610.1 bus2=S4X_1000610.1 linecode=defaultSecondary  length=100  units=ft
New Line.S_1000610-DA5 bus1=X_1000610.1 bus2=S5X_1000610.1 linecode=defaultSecondary  length=100  units=ft
New Line.S_1000610-DA6 bus1=X_1000610.1 bus2=S6X_1000610.1 linecode=defaultSecondary  length=100  units=ft
New Line.S_1000610-DA7 bus1=X_1000610.1 bus2=S7X_1000610.1 linecode=defaultSecondary  length=100  units=ft
New Line.S_1000610-DA8 bus1=X_1000610.1 bus2=S8X_1000610.1 linecode=defaultSecondary  length=100  units=ft
New Line.S_1000610-DA9 bus1=X_1000610.1 bus2=S9X_1000610.1 linecode=defaultSecondary  length=100  units=ft
New Line.S_1000610-DA10 bus1=X_1000610.1 bus2=S10X_1000610.1 linecode=defaultSecondary  length=100  units=ft
New Line.S_1000610-DA11 bus1=X_1000610.1 bus2=S11X_1000610.1 linecode=defaultSecondary  length=100  units=ft
New Line.S_1000611-DA1 bus1=X_1000611.1 bus2=S1X_1000611.1 linecode=defaultSecondary  length=100  units=ft
New Line.S_1000611-DA2 bus1=X_1000611.1 bus2=S2X_1000611.1 linecode=defaultSecondary  length=100  units=ft
New Line.S_1000611-DA3 bus1=X_1000611.1 bus2=S3X_1000611.1 linecode=defaultSecondary  length=100  units=ft
New Line.S_1000611-DA4 bus1=X_1000611.1 bus2=S4X_1000611.1 linecode=defaultSecondary  length=100  units=ft
New Line.S_1000611-DA5 bus1=X_1000611.1 bus2=S5X_1000611.1 linecode=defaultSecondary  length=100  units=ft
New Line.S_1000612-DA1 bus1=X_1000612.1 bus2=S1X_1000612.1 linecode=defaultSecondary  length=100  units=ft
New Line.S_1000612-DA2 bus1=X_1000612.1 bus2=S2X_1000612.1 linecode=defaultSecondary  length=100  units=ft
New Line.S_1000612-DA3 bus1=X_1000612.1 bus2=S3X_1000612.1 linecode=defaultSecondary  length=100  units=ft
New Line.S_1000612-DA4 bus1=X_1000612.1 bus2=S4X_1000612.1 linecode=defaultSecondary  length=100  units=ft
New Line.S_1000612-DA5 bus1=X_1000612.1 bus2=S5X_1000612.1 linecode=defaultSecondary  length=100  units=ft
New Line.S_1000612-DA6 bus1=X_1000612.1 bus2=S6X_1000612.1 linecode=defaultSecondary  length=100  units=ft
New Line.S_1000612-DA7 bus1=X_1000612.1 bus2=S7X_1000612.1 linecode=defaultSecondary  length=100  units=ft
New Line.S_1000612-DA8 bus1=X_1000612.1 bus2=S8X_1000612.1 linecode=defaultSecondary  length=100  units=ft
New Line.S_1000598-DC1 bus1=X_1000598.3 bus2=S1X_1000598.3 linecode=defaultSecondary  length=100  units=ft
New Line.S_1000598-DC2 bus1=X_1000598.3 bus2=S2X_1000598.3 linecode=defaultSecondary  length=100  units=ft
New Line.S_1000598-DC3 bus1=X_1000598.3 bus2=S3X_1000598.3 linecode=defaultSecondary  length=100  units=ft
New Line.S_1000598-DC4 bus1=X_1000598.3 bus2=S4X_1000598.3 linecode=defaultSecondary  length=100  units=ft
New Line.S_1000598-DC5 bus1=X_1000598.3 bus2=S5X_1000598.3 linecode=defaultSecondary  length=100  units=ft
New Line.S_1000598-DC6 bus1=X_1000598.3 bus2=S6X_1000598.3 linecode=defaultSecondary  length=100  units=ft
New Line.S_1000598-DC7 bus1=X_1000598.3 bus2=S7X_1000598.3 linecode=defaultSecondary  length=100  units=ft
New Line.S_1000598-DC8 bus1=X_1000598.3 bus2=S8X_1000598.3 linecode=defaultSecondary  length=100  units=ft
New Line.S_1000598-DC9 bus1=X_1000598.3 bus2=S9X_1000598.3 linecode=defaultSecondary  length=100  units=ft
New Line.S_1000599-DC1 bus1=X_1000599.3 bus2=S1X_1000599.3 linecode=defaultSecondary  length=100  units=ft
New Line.S_1000599-DC2 bus1=X_1000599.3 bus2=S2X_1000599.3 linecode=defaultSecondary  length=100  units=ft
New Line.S_1000599-DC3 bus1=X_1000599.3 bus2=S3X_1000599.3 linecode=defaultSecondary  length=100  units=ft
New Line.S_1000599-DC4 bus1=X_1000599.3 bus2=S4X_1000599.3 linecode=defaultSecondary  length=100  units=ft
New Line.S_1000599-DC5 bus1=X_1000599.3 bus2=S5X_1000599.3 linecode=defaultSecondary  length=100  units=ft
New Line.S_1000599-DC6 bus1=X_1000599.3 bus2=S6X_1000599.3 linecode=defaultSecondary  length=100  units=ft
New Line.S_1000599-DC7 bus1=X_1000599.3 bus2=S7X_1000599.3 linecode=defaultSecondary  length=100  units=ft
New Line.S_1000599-DC8 bus1=X_1000599.3 bus2=S8X_1000599.3 linecode=defaultSecondary  length=100  units=ft
New Line.S_1000599-DC9 bus1=X_1000599.3 bus2=S9X_1000599.3 linecode=defaultSecondary  length=100  units=ft
New Line.S_1000599-DC10 bus1=X_1000599.3 bus2=S10X_1000599.3 linecode=defaultSecondary  length=100  units=ft
New Line.S_1000599-DC11 bus1=X_1000599.3 bus2=S11X_1000599.3 linecode=defaultSecondary  length=100  units=ft
New Line.S_1000600-DC1 bus1=X_1000600.3 bus2=S1X_1000600.3 linecode=defaultSecondary  length=100  units=ft
New Line.S_1000600-DC2 bus1=X_1000600.3 bus2=S2X_1000600.3 linecode=defaultSecondary  length=100  units=ft
New Line.S_1000600-DC3 bus1=X_1000600.3 bus2=S3X_1000600.3 linecode=defaultSecondary  length=100  units=ft
New Line.S_1000600-DC4 bus1=X_1000600.3 bus2=S4X_1000600.3 linecode=defaultSecondary  length=100  units=ft
New Line.S_1000600-DC5 bus1=X_1000600.3 bus2=S5X_1000600.3 linecode=defaultSecondary  length=100  units=ft
New Line.S_1000600-DC6 bus1=X_1000600.3 bus2=S6X_1000600.3 linecode=defaultSecondary  length=100  units=ft
New Line.S_1000600-DC7 bus1=X_1000600.3 bus2=S7X_1000600.3 linecode=defaultSecondary  length=100  units=ft
New Line.S_1000600-DC8 bus1=X_1000600.3 bus2=S8X_1000600.3 linecode=defaultSecondary  length=100  units=ft
New Line.S_1000600-DC9 bus1=X_1000600.3 bus2=S9X_1000600.3 linecode=defaultSecondary  length=100  units=ft
New Line.S_1000602-DC1 bus1=X_1000602.3 bus2=S1X_1000602.3 linecode=defaultSecondary  length=100  units=ft
New Line.S_1000602-DC2 bus1=X_1000602.3 bus2=S2X_1000602.3 linecode=defaultSecondary  length=100  units=ft
New Line.S_1000602-DC3 bus1=X_1000602.3 bus2=S3X_1000602.3 linecode=defaultSecondary  length=100  units=ft
New Line.S_1000602-DC4 bus1=X_1000602.3 bus2=S4X_1000602.3 linecode=defaultSecondary  length=100  units=ft
New Line.S_1000602-DC5 bus1=X_1000602.3 bus2=S5X_1000602.3 linecode=defaultSecondary  length=100  units=ft
New Line.S_1000602-DC6 bus1=X_1000602.3 bus2=S6X_1000602.3 linecode=defaultSecondary  length=100  units=ft
New Line.S_1000602-DC7 bus1=X_1000602.3 bus2=S7X_1000602.3 linecode=defaultSecondary  length=100  units=ft
New Line.S_1000602-DC8 bus1=X_1000602.3 bus2=S8X_1000602.3 linecode=defaultSecondary  length=100  units=ft
New Line.S_1000601-DC1 bus1=X_1000601.3 bus2=S1X_1000601.3 linecode=defaultSecondary  length=100  units=ft
New Line.S_1000601-DC2 bus1=X_1000601.3 bus2=S2X_1000601.3 linecode=defaultSecondary  length=100  units=ft
New Line.S_1000601-DC3 bus1=X_1000601.3 bus2=S3X_1000601.3 linecode=defaultSecondary  length=100  units=ft
New Line.S_1000601-DC4 bus1=X_1000601.3 bus2=S4X_1000601.3 linecode=defaultSecondary  length=100  units=ft
New Line.S_1000601-DC5 bus1=X_1000601.3 bus2=S5X_1000601.3 linecode=defaultSecondary  length=100  units=ft
New Line.S_1000601-DC6 bus1=X_1000601.3 bus2=S6X_1000601.3 linecode=defaultSecondary  length=100  units=ft
New Line.S_1000601-DC7 bus1=X_1000601.3 bus2=S7X_1000601.3 linecode=defaultSecondary  length=100  units=ft
New Line.S_1000601-DC8 bus1=X_1000601.3 bus2=S8X_1000601.3 linecode=defaultSecondary  length=100  units=ft
New Line.S_1000603-DB1 bus1=X_1000603.2 bus2=S1X_1000603.2 linecode=defaultSecondary  length=100  units=ft
New Line.S_1000603-DB2 bus1=X_1000603.2 bus2=S2X_1000603.2 linecode=defaultSecondary  length=100  units=ft
New Line.S_1000603-DB3 bus1=X_1000603.2 bus2=S3X_1000603.2 linecode=defaultSecondary  length=100  units=ft
New Line.S_1000603-DB4 bus1=X_1000603.2 bus2=S4X_1000603.2 linecode=defaultSecondary  length=100  units=ft
New Line.S_1000603-DB5 bus1=X_1000603.2 bus2=S5X_1000603.2 linecode=defaultSecondary  length=100  units=ft
New Line.S_1000603-DB6 bus1=X_1000603.2 bus2=S6X_1000603.2 linecode=defaultSecondary  length=100  units=ft
New Line.S_1000603-DB7 bus1=X_1000603.2 bus2=S7X_1000603.2 linecode=defaultSecondary  length=100  units=ft
New Line.S_1000604-DB1 bus1=X_1000604.2 bus2=S1X_1000604.2 linecode=defaultSecondary  length=100  units=ft
New Line.S_1000604-DB2 bus1=X_1000604.2 bus2=S2X_1000604.2 linecode=defaultSecondary  length=100  units=ft
New Line.S_1000604-DB3 bus1=X_1000604.2 bus2=S3X_1000604.2 linecode=defaultSecondary  length=100  units=ft
New Line.S_1000604-DB4 bus1=X_1000604.2 bus2=S4X_1000604.2 linecode=defaultSecondary  length=100  units=ft
New Line.S_1000604-DB5 bus1=X_1000604.2 bus2=S5X_1000604.2 linecode=defaultSecondary  length=100  units=ft
New Line.S_1000604-DB6 bus1=X_1000604.2 bus2=S6X_1000604.2 linecode=defaultSecondary  length=100  units=ft
New Line.S_1000604-DB7 bus1=X_1000604.2 bus2=S7X_1000604.2 linecode=defaultSecondary  length=100  units=ft
New Line.S_1000604-DB8 bus1=X_1000604.2 bus2=S8X_1000604.2 linecode=defaultSecondary  length=100  units=ft
New Line.S_1000604-DB9 bus1=X_1000604.2 bus2=S9X_1000604.2 linecode=defaultSecondary  length=100  units=ft
New Line.S_1000604-DB10 bus1=X_1000604.2 bus2=S10X_1000604.2 linecode=defaultSecondary  length=100  units=ft
...
